@<TRIPOS>MOLECULE
MMRi6.sdf
42 45 1 0 0
PROTEIN
AMBER ff14SB


@<TRIPOS>ATOM
      1 N1          2.3922   -0.7176    2.3898 N.ar      1 UNK   -0.2417
      2 C1          2.8855   -0.0757    3.4810 C.ar      1 UNK    0.0290
      3 C2          2.3098   -0.3063    4.7452 C.ar      1 UNK   -0.0437
      4 C3          1.2372   -1.2106    4.8482 C.ar      1 UNK   -0.0573
      5 C4          0.7613   -1.8685    3.6972 C.ar      1 UNK   -0.0219
      6 C5          1.3605   -1.6063    2.4473 C.ar      1 UNK    0.1179
      7 N2          0.8840   -2.2207    1.3254 N.pl3     1 UNK   -0.3183
      8 C6          0.8744   -1.6245    0.0165 C.3       1 UNK    0.0744
      9 C7         -0.1093   -0.4847   -0.0392 C.ar      1 UNK    0.0105
     10 C8          0.6735   -2.6823   -1.0277 C.ar      1 UNK   -0.0217
     11 C9          1.7981   -3.3156   -1.6186 C.ar      1 UNK   -0.0381
     12 C10         1.6466   -4.3103   -2.6056 C.ar      1 UNK    0.0409
     13 C11         0.3574   -4.6877   -3.0217 C.ar      1 UNK   -0.0435
     14 C12        -0.7706   -4.0817   -2.4452 C.ar      1 UNK   -0.0604
     15 C13        -0.6135   -3.0981   -1.4522 C.ar      1 UNK   -0.0567
     16 Cl1         3.0036   -5.0568   -3.2926 Cl        1 UNK   -0.0843
     17 C14         0.1546    0.7034   -0.7677 C.ar      1 UNK    0.1030
     18 C15        -0.7155    1.8119   -0.6612 C.ar      1 UNK    0.1020
     19 C16        -1.9166    1.7275    0.1010 C.ar      1 UNK    0.0215
     20 C17        -2.2298    0.5136    0.7563 C.ar      1 UNK    0.0505
     21 C18        -1.3253   -0.5605    0.6868 C.ar      1 UNK   -0.0347
     22 Cl2        -3.6492    0.2743    1.6614 Cl        1 UNK   -0.0836
     23 N3         -0.3965    2.9827   -1.2776 N.ar      1 UNK   -0.2534
     24 C19        -1.1658    4.0971   -1.2026 C.ar      1 UNK    0.0276
     25 C20        -2.3681    4.0680   -0.4778 C.ar      1 UNK   -0.0431
     26 C21        -2.7395    2.8783    0.1727 C.ar      1 UNK   -0.0497
     27 O1          1.2482    0.8144   -1.5731 O.3       1 UNK   -0.3583
     28 H1          3.7152    0.6081    3.3792 H         1 UNK    0.0841
     29 H2          2.6853    0.2024    5.6208 H         1 UNK    0.0639
     30 H3          0.7795   -1.4001    5.8079 H         1 UNK    0.0625
     31 H4         -0.0572   -2.5692    3.7711 H         1 UNK    0.0660
     32 HN2         0.5138   -3.1556    1.4207 H         1 UNK    0.1490
     33 H6          1.8645   -1.1992   -0.1472 H         1 UNK    0.0608
     34 H9          2.7911   -3.0291   -1.3052 H         1 UNK    0.0642
     35 H11         0.2349   -5.4429   -3.7840 H         1 UNK    0.0638
     36 H12        -1.7607   -4.3715   -2.7649 H         1 UNK    0.0623
     37 H13        -1.4893   -2.6515   -1.0050 H         1 UNK    0.0626
     38 H18        -1.5653   -1.4770    1.2053 H         1 UNK    0.0643
     39 H19        -0.8546    5.0044   -1.6990 H         1 UNK    0.0840
     40 H20        -2.9967    4.9444   -0.4210 H         1 UNK    0.0639
     41 H21        -3.6620    2.8414    0.7330 H         1 UNK    0.0631
     42 HO1         2.0448    0.7531   -1.0409 H         1 UNK    0.2184
@<TRIPOS>BOND
     1    1    2 ar
     2    2    3 ar
     3    3    4 ar
     4    4    5 ar
     5    5    6 ar
     6    1    6 ar
     7    6    7 1
     8    7    8 1
     9    8    9 1
    10    8   10 1
    11   11   12 ar
    12   12   13 ar
    13   13   14 ar
    14   14   15 ar
    15   10   11 ar
    16   10   15 ar
    17   12   16 1
    18   17   18 ar
    19   18   19 ar
    20   19   20 ar
    21   20   21 ar
    22    9   17 ar
    23    9   21 ar
    24   20   22 1
    25   23   24 ar
    26   24   25 ar
    27   25   26 ar
    28   19   26 ar
    29   18   23 ar
    30   17   27 1
    31   28    2 1
    32   29    3 1
    33   30    4 1
    34   31    5 1
    35   32    7 1
    36   33    8 1
    37   34   11 1
    38   35   13 1
    39   36   14 1
    40   37   15 1
    41   38   21 1
    42   39   24 1
    43   40   25 1
    44   41   26 1
    45   42   27 1
@<TRIPOS>SUBSTRUCTURE
     1 UNK     1 RESIDUE           4 A     UNK     0 ROOT
