@<TRIPOS>MOLECULE
3D_MMRi64.sdf
45 48 1 0 0
PROTEIN
AMBER ff14SB


@<TRIPOS>ATOM
      1 C1         -8.6350   -0.4297   -1.5853 C.ar      1 UNK    0.0595
      2 C2         -8.8982    0.9465   -1.5112 C.ar      1 UNK   -0.0420
      3 C3         -7.8406    1.8527   -1.3573 C.ar      1 UNK   -0.0603
      4 C4         -6.5213    1.3826   -1.2682 C.ar      1 UNK   -0.0552
      5 C5         -6.2361   -0.0009   -1.3267 C.ar      1 UNK   -0.0030
      6 C6         -7.3104   -0.9074   -1.4968 C.ar      1 UNK    0.0646
      7 Cl1        -9.9880   -1.5275   -1.7895 Cl        1 UNK   -0.0827
      8 Cl2        -7.0219   -2.6371   -1.6129 Cl        1 UNK   -0.0823
      9 C7         -4.7856   -0.4976   -1.2278 C.3       1 UNK    0.0758
     10 C8         -4.1634   -0.6699   -2.6243 C.ar      1 UNK    0.0091
     11 C9         -3.6403   -1.9140   -3.0593 C.ar      1 UNK    0.1029
     12 C10        -3.0378   -2.0441   -4.3327 C.ar      1 UNK    0.1005
     13 C11        -2.9872   -0.9104   -5.1773 C.ar      1 UNK    0.0029
     14 C12        -3.5124    0.3200   -4.7555 C.ar      1 UNK   -0.0523
     15 C13        -4.0881    0.4418   -3.4845 C.ar      1 UNK   -0.0534
     16 N1         -3.9806    0.3801   -0.3464 N.pl3     1 UNK   -0.3182
     17 O1         -3.6969   -3.0111   -2.2392 O.3       1 UNK   -0.3583
     18 N2         -2.5169   -3.2283   -4.7359 N.ar      1 UNK   -0.2535
     19 C14        -1.9490   -3.3343   -5.9510 C.ar      1 UNK    0.0276
     20 C15        -1.8718   -2.2573   -6.8436 C.ar      1 UNK   -0.0432
     21 C16        -2.4007   -1.0206   -6.4507 C.ar      1 UNK   -0.0512
     22 C17        -2.6491    0.1831    0.0199 C.ar      1 UNK    0.1179
     23 C18        -2.0783    0.9787    1.0309 C.ar      1 UNK   -0.0216
     24 C19        -0.7233    0.8057    1.3586 C.ar      1 UNK   -0.0543
     25 C20         0.0237   -0.1596    0.6594 C.ar      1 UNK   -0.0326
     26 C21        -0.6317   -0.9204   -0.3258 C.ar      1 UNK    0.0319
     27 N3         -1.9321   -0.7547   -0.6339 N.ar      1 UNK   -0.2414
     28 C22         1.5019   -0.3728    0.9419 C.3       1 UNK   -0.0382
     29 H2         -9.9194    1.3109   -1.5785 H         1 UNK    0.0639
     30 H3         -8.0417    2.9197   -1.3080 H         1 UNK    0.0623
     31 H4         -5.7198    2.1083   -1.1602 H         1 UNK    0.0627
     32 H7         -4.8131   -1.4678   -0.7212 H         1 UNK    0.0608
     33 H12        -3.4661    1.1878   -5.4081 H         1 UNK    0.0630
     34 H13        -4.4718    1.4063   -3.1680 H         1 UNK    0.0628
     35 HN1        -4.4955    1.0573    0.2020 H         1 UNK    0.1490
     36 H14        -1.5472   -4.3134   -6.2121 H         1 UNK    0.0840
     37 H15        -1.4096   -2.3794   -7.8173 H         1 UNK    0.0639
     38 H16        -2.3543   -0.1661   -7.1190 H         1 UNK    0.0630
     39 H18        -2.6751    1.7252    1.5474 H         1 UNK    0.0660
     40 H19        -0.2617    1.4158    2.1308 H         1 UNK    0.0627
     41 H21        -0.0959   -1.6799   -0.8960 H         1 UNK    0.0844
     42 H1         -4.0919   -2.7483   -1.3930 H         1 UNK    0.2184
     43 H221        1.8365    0.2036    1.8138 H         1 UNK    0.0280
     44 H222        2.1099   -0.0618    0.0827 H         1 UNK    0.0280
     45 H223        1.7153   -1.4310    1.1388 H         1 UNK    0.0280
@<TRIPOS>BOND
     1    1    2 ar
     2    2    3 ar
     3    3    4 ar
     4    4    5 ar
     5    5    6 ar
     6    1    6 ar
     7    1    7 1
     8    6    8 1
     9    5    9 1
    10    9   10 1
    11   11   12 ar
    12   12   13 ar
    13   13   14 ar
    14   14   15 ar
    15   10   11 ar
    16   10   15 ar
    17    9   16 1
    18   11   17 1
    19   18   19 ar
    20   19   20 ar
    21   20   21 ar
    22   12   18 ar
    23   13   21 ar
    24   16   22 1
    25   23   24 ar
    26   24   25 ar
    27   25   26 ar
    28   26   27 ar
    29   22   23 ar
    30   22   27 ar
    31   25   28 1
    32   29    2 1
    33   30    3 1
    34   31    4 1
    35   32    9 1
    36   33   14 1
    37   34   15 1
    38   35   16 1
    39   36   19 1
    40   37   20 1
    41   38   21 1
    42   39   23 1
    43   40   24 1
    44   41   26 1
    45   42   17 1
    46   43   28 1
    47   44   28 1
    48   45   28 1
@<TRIPOS>SUBSTRUCTURE
     1 UNK     1 RESIDUE           4 A     UNK     0 ROOT
